Version 4
SHEET 1 1872 1092
WIRE -4192 -352 -4784 -352
WIRE -3776 -352 -4192 -352
WIRE -4784 -240 -4784 -352
WIRE -4192 -240 -4192 -352
WIRE -4784 -48 -4784 -160
WIRE -4704 -48 -4784 -48
WIRE -4560 -48 -4624 -48
WIRE -4512 -48 -4560 -48
WIRE -4352 -48 -4432 -48
WIRE -4192 -48 -4192 -160
WIRE -4192 -48 -4288 -48
WIRE -4192 80 -4192 -48
WIRE -4784 96 -4784 -48
WIRE 1728 240 1728 64
WIRE 1808 240 1728 240
WIRE -4944 320 -4944 64
WIRE -4784 320 -4784 176
WIRE -4784 320 -4944 320
WIRE -4192 320 -4192 160
WIRE -4192 320 -4784 320
WIRE -3120 368 -3168 368
WIRE -2976 368 -3040 368
WIRE -2912 368 -2976 368
WIRE -2784 368 -2832 368
WIRE -3952 400 -4048 400
WIRE -3776 400 -3776 -352
WIRE -3776 400 -3888 400
WIRE 1808 400 1808 320
WIRE -4944 416 -4944 320
WIRE 1808 432 1808 400
WIRE -3168 448 -3168 368
WIRE -2976 448 -2976 368
WIRE -2976 448 -3168 448
WIRE -4560 528 -4560 -48
WIRE -4048 528 -4048 400
WIRE -4048 528 -4560 528
WIRE -3952 528 -4048 528
WIRE -3776 544 -3776 400
WIRE -3776 544 -3888 544
WIRE -3520 544 -3616 544
WIRE -3344 544 -3456 544
WIRE -3168 544 -3168 448
WIRE -3168 544 -3264 544
WIRE -4944 560 -4944 496
WIRE -3952 560 -4048 560
WIRE -3168 608 -3168 544
WIRE -2944 608 -3168 608
WIRE -2784 624 -2784 368
WIRE -2784 624 -2880 624
WIRE -2688 624 -2688 608
WIRE -2688 624 -2784 624
WIRE -3920 640 -3920 576
WIRE -3776 640 -3776 544
WIRE -3712 640 -3776 640
WIRE -3584 640 -3712 640
WIRE -3440 640 -3520 640
WIRE -2944 640 -3440 640
WIRE -2688 656 -2688 624
WIRE -4048 672 -4048 560
WIRE -2912 720 -2912 656
WIRE -3440 736 -3440 640
WIRE -1872 768 -2016 768
WIRE -1760 768 -1872 768
WIRE -1616 768 -1696 768
WIRE -2144 800 -2208 800
WIRE -1984 800 -2016 800
WIRE -1872 816 -1872 768
WIRE -2688 832 -2688 736
WIRE -2144 832 -2688 832
WIRE -3440 864 -3440 816
WIRE -2144 864 -2208 864
WIRE -2688 880 -2688 832
WIRE -1872 944 -1872 880
WIRE -2688 1024 -2688 960
WIRE -1872 1072 -1872 1024
FLAG -4048 672 0
FLAG 1728 64 0
FLAG 1808 160 Vcc
FLAG 1808 400 Vee
FLAG -3920 640 Vee
FLAG -3920 512 Vcc
FLAG -1984 800 Vcc
FLAG -4944 560 0
FLAG -2688 1024 0
FLAG -2208 800 0
FLAG -1872 1072 0
FLAG -4944 64 in
FLAG -2208 864 0
FLAG -1616 768 power_amp_out
FLAG -2688 608 preamp_out
FLAG -2912 720 Vee
FLAG -2912 592 Vcc
FLAG -3440 864 0
FLAG -3616 544 0
FLAG -3712 640 tone_control_out
SYMBOL cap -3888 384 R90
WINDOW 0 0 32 VBottom 2
WINDOW 3 32 32 VTop 2
SYMATTR InstName C1
SYMATTR Value 22pF
SYMBOL res -4800 -256 R0
SYMATTR InstName R1
SYMATTR Value 1.8k
SYMBOL res -4800 80 R0
SYMATTR InstName R3
SYMATTR Value 1.8k
SYMBOL res -4608 -64 R90
WINDOW 0 0 56 VBottom 2
WINDOW 3 32 56 VTop 2
SYMATTR InstName R4
SYMATTR Value 22k
SYMBOL res -4416 -64 R90
WINDOW 0 0 56 VBottom 2
WINDOW 3 32 56 VTop 2
SYMATTR InstName R5
SYMATTR Value 9.1k
SYMBOL cap -4288 -64 R90
WINDOW 0 0 32 VBottom 2
WINDOW 3 32 32 VTop 2
SYMATTR InstName C3
SYMATTR Value 4.7nF
SYMBOL res -4208 64 R0
WINDOW 3 29 74 Left 2
SYMATTR Value {R}
SYMATTR InstName R6
SYMBOL voltage 1808 144 R0
WINDOW 0 -32 56 VBottom 2
WINDOW 3 32 56 VTop 2
WINDOW 123 0 0 Left 2
WINDOW 39 60 56 VTop 2
SYMATTR InstName V2
SYMATTR Value 11.9
SYMBOL voltage 1808 224 R0
WINDOW 0 -32 56 VBottom 2
WINDOW 3 32 56 VTop 2
WINDOW 123 0 0 Left 2
WINDOW 39 0 0 Left 2
SYMATTR InstName V3
SYMATTR Value 11.9
SYMBOL Opamps\\OP27 -3920 480 R0
SYMATTR InstName U1
SYMBOL res -4208 -256 R0
WINDOW 3 29 74 Left 2
SYMATTR Value {R_SUB}
SYMATTR InstName R7
SYMBOL res -2704 864 R0
WINDOW 3 29 74 Left 2
SYMATTR Value {R_VOL}
SYMATTR InstName R2
SYMBOL res -2704 640 R0
WINDOW 3 29 74 Left 2
SYMATTR Value {R_VOL_SUB}
SYMATTR InstName R8
SYMBOL voltage -4944 400 R0
WINDOW 123 27 93 Left 2
WINDOW 39 24 117 Left 2
WINDOW 3 27 121 Left 2
SYMATTR Value2 AC 1
SYMATTR Value SINE(0 0.15 1000)
SYMATTR InstName V4
SYMBOL cap -1888 816 R0
SYMATTR InstName C2
SYMATTR Value 0.05µF
SYMBOL res -1888 928 R0
SYMATTR InstName R9
SYMATTR Value 10
SYMBOL cap -1696 752 R90
WINDOW 0 0 32 VBottom 2
WINDOW 3 32 32 VTop 2
SYMATTR InstName C4
SYMATTR Value 250µF
SYMBOL AutoGenerated\\lm386 -2080 816 R0
SYMATTR InstName U3
SYMBOL res -3024 352 R90
WINDOW 3 32 56 VTop 2
WINDOW 0 0 56 VBottom 2
SYMATTR Value {R_GAIN}
SYMATTR InstName R10
SYMBOL res -2816 352 R90
WINDOW 3 32 56 VTop 2
WINDOW 0 0 56 VBottom 2
SYMATTR Value {R_GAIN_SUB}
SYMATTR InstName R11
SYMBOL Opamps\\OP27 -2912 560 R0
SYMATTR InstName U2
SYMBOL res -3248 528 R90
WINDOW 0 0 56 VBottom 2
WINDOW 3 32 56 VTop 2
SYMATTR InstName R12
SYMATTR Value 10k
SYMBOL cap -3520 624 R90
WINDOW 0 0 32 VBottom 2
WINDOW 3 32 32 VTop 2
SYMATTR InstName C5
SYMATTR Value 47µF
SYMBOL res -3424 832 R180
WINDOW 0 36 76 Left 2
WINDOW 3 36 40 Left 2
SYMATTR InstName R16
SYMATTR Value 1000k
SYMBOL cap -3456 528 R90
WINDOW 0 0 32 VBottom 2
WINDOW 3 32 32 VTop 2
SYMATTR InstName C7
SYMATTR Value 47µF
TEXT -1808 -472 Left 2 !.options gmin=1e-9\n.options abstol=1e-10\n.options reltol=0.003\n.options cshunt=1e-15\n.option  ITL6=100
TEXT -1808 -496 Left 2 !.ac oct 100 10 30K
TEXT -1808 -248 Left 2 !.param R_SUB=10K-{R}+10
TEXT -1808 -224 Left 2 !.param R=5K
TEXT -1808 -200 Left 2 !.step param R 10 10000 1000
TEXT -1808 -136 Left 2 !.param R_GAIN=0.1
TEXT -1808 -160 Left 2 !.param R_GAIN_SUB=20K-{R_GAIN}+10
TEXT -1800 -520 Left 2 !;tran 0.010
TEXT -1808 -112 Left 2 !;.step param R_GAIN 10 20000 2000
TEXT -1808 -280 Left 2 ;PARAMETERS
TEXT -1800 -552 Left 2 ;SIMULATION
TEXT -1808 -40 Left 2 !.param R_VOL=5k
TEXT -1808 -16 Left 2 !;.step param R_VOL 10 10000 500
TEXT -1808 -64 Left 2 !.param R_VOL_SUB=10K-{R_VOL}+10
