Version 4
SHEET 1 1872 1028
WIRE -2848 -352 -3440 -352
WIRE -2432 -352 -2848 -352
WIRE -3440 -240 -3440 -352
WIRE -2848 -240 -2848 -352
WIRE -3440 -48 -3440 -160
WIRE -3360 -48 -3440 -48
WIRE -3216 -48 -3280 -48
WIRE -3168 -48 -3216 -48
WIRE -3008 -48 -3088 -48
WIRE -2848 -48 -2848 -160
WIRE -2848 -48 -2944 -48
WIRE -2848 80 -2848 -48
WIRE -3440 96 -3440 -48
WIRE 1728 240 1728 64
WIRE 1808 240 1728 240
WIRE -3600 320 -3600 64
WIRE -3440 320 -3440 176
WIRE -3440 320 -3600 320
WIRE -2848 320 -2848 160
WIRE -2848 320 -3440 320
WIRE -2608 400 -2704 400
WIRE -2432 400 -2432 -352
WIRE -2432 400 -2544 400
WIRE 1808 400 1808 320
WIRE -3600 416 -3600 320
WIRE 1808 432 1808 400
WIRE -3216 528 -3216 -48
WIRE -2704 528 -2704 400
WIRE -2704 528 -3216 528
WIRE -2608 528 -2704 528
WIRE -2432 544 -2432 400
WIRE -2432 544 -2544 544
WIRE -2176 544 -2432 544
WIRE -3600 560 -3600 496
WIRE -2608 560 -2704 560
WIRE -2176 592 -2176 544
WIRE -2576 640 -2576 576
WIRE -2704 672 -2704 560
WIRE -1424 704 -1568 704
WIRE -1312 704 -1424 704
WIRE -1168 704 -1248 704
WIRE -1696 736 -1760 736
WIRE -1536 736 -1568 736
WIRE -1424 752 -1424 704
WIRE -2176 768 -2176 672
WIRE -1696 768 -2176 768
WIRE -1696 800 -1760 800
WIRE -2176 816 -2176 768
WIRE -1424 880 -1424 816
WIRE -2176 960 -2176 896
WIRE -1424 1008 -1424 960
FLAG -2704 672 0
FLAG 1728 64 0
FLAG 1808 160 Vcc
FLAG 1808 400 Vee
FLAG -2576 640 Vee
FLAG -2576 512 Vcc
FLAG -1536 736 Vcc
FLAG -3600 560 0
FLAG -2176 960 0
FLAG -1760 736 0
FLAG -1424 1008 0
FLAG -3600 64 in
FLAG -1760 800 0
FLAG -1168 704 out
FLAG -2176 544 tone_control_out
SYMBOL cap -2544 384 R90
WINDOW 0 0 32 VBottom 2
WINDOW 3 32 32 VTop 2
SYMATTR InstName C1
SYMATTR Value 22pF
SYMBOL res -3456 -256 R0
SYMATTR InstName R1
SYMATTR Value 1.8k
SYMBOL res -3456 80 R0
SYMATTR InstName R3
SYMATTR Value 1.8k
SYMBOL res -3264 -64 R90
WINDOW 0 0 56 VBottom 2
WINDOW 3 32 56 VTop 2
SYMATTR InstName R4
SYMATTR Value 22k
SYMBOL res -3072 -64 R90
WINDOW 0 0 56 VBottom 2
WINDOW 3 32 56 VTop 2
SYMATTR InstName R5
SYMATTR Value 9.1k
SYMBOL cap -2944 -64 R90
WINDOW 0 0 32 VBottom 2
WINDOW 3 32 32 VTop 2
SYMATTR InstName C3
SYMATTR Value 4.7nF
SYMBOL res -2864 64 R0
WINDOW 3 29 74 Left 2
SYMATTR Value {R}
SYMATTR InstName R6
SYMBOL voltage 1808 144 R0
WINDOW 0 -32 56 VBottom 2
WINDOW 3 32 56 VTop 2
WINDOW 123 0 0 Left 2
WINDOW 39 60 56 VTop 2
SYMATTR InstName V2
SYMATTR Value 11.9
SYMBOL voltage 1808 224 R0
WINDOW 0 -32 56 VBottom 2
WINDOW 3 32 56 VTop 2
WINDOW 123 0 0 Left 2
WINDOW 39 0 0 Left 2
SYMATTR InstName V3
SYMATTR Value 11.9
SYMBOL Opamps\\OP27 -2576 480 R0
SYMATTR InstName U1
SYMBOL res -2864 -256 R0
WINDOW 3 29 74 Left 2
SYMATTR Value {R_SUB}
SYMATTR InstName R7
SYMBOL res -2192 800 R0
WINDOW 3 29 74 Left 2
SYMATTR Value {R_GAIN}
SYMATTR InstName R2
SYMBOL res -2192 576 R0
WINDOW 3 29 74 Left 2
SYMATTR Value {R_GAIN_SUB}
SYMATTR InstName R8
SYMBOL voltage -3600 400 R0
WINDOW 123 27 93 Left 2
WINDOW 39 24 117 Left 2
WINDOW 3 27 121 Left 2
SYMATTR Value2 AC 1
SYMATTR Value SINE(0 0.15 1000)
SYMATTR InstName V4
SYMBOL cap -1440 752 R0
SYMATTR InstName C2
SYMATTR Value 0.05µF
SYMBOL res -1440 864 R0
SYMATTR InstName R9
SYMATTR Value 10
SYMBOL cap -1248 688 R90
WINDOW 0 0 32 VBottom 2
WINDOW 3 32 32 VTop 2
SYMATTR InstName C4
SYMATTR Value 250µF
SYMBOL AutoGenerated\\lm386 -1632 752 R0
SYMATTR InstName U3
TEXT -1808 -472 Left 2 !.options gmin=1e-9\n.options abstol=1e-10\n.options reltol=0.003\n.options cshunt=1e-15\n.option  ITL6=100
TEXT -1808 -496 Left 2 !;ac oct 100 10 30K
TEXT -1808 -248 Left 2 !.param R_SUB=10K-{R}+10
TEXT -1808 -224 Left 2 !.param R=5K
TEXT -1808 -200 Left 2 !;.step param R 10 10000 1000
TEXT -1808 -136 Left 2 !.param R_GAIN=5k
TEXT -1808 -160 Left 2 !.param R_GAIN_SUB=10K-{R_GAIN}+10
TEXT -1800 -520 Left 2 !.tran 0.010
TEXT -1808 -112 Left 2 !..step param R_GAIN 10 10000 500
TEXT -1808 -280 Left 2 ;PARAMETERS
TEXT -1800 -552 Left 2 ;SIMULATION
